gcgridobj

This is a minimal python package which provides objects and routines useful for manipulating GEOS-Chem output data in Python 3.
